.SUBCKT LINK1424 DA DK QE QC VCC
DIN DA 9 DT8811VB
VT 9 DK 0
CIO DA QC 0.6E-12
QOUT QC QB QE QF290D
RFX QB QE 1E6
HD T1 0 VT 800
RDLY1 T1 T2 0.1
CDLY1 T2 0 1P
GDLY1 VCC QB VALUE={-2E-7 + 5E-6*V(T2) -1.7E-8*V(T2)*V(T2)}
.MODEL DT8811VB D
+ IS=4.5E-18 N=1.40 RS=3.8
+ BV=3.000E+000 IBV=0.5E-006 XTI=4
+ EG=1.52436 CJO=18E-12 VJ=0.75 M=0.5 FC=0.5
.MODEL QF290D NPN
+ IS=2.691E-016 NF=1.000E+000 ISE=6.586E-018
+ NE = 1.082E+000 BF = 176 BR = 1.000E+000
+ IKF = 7.300E-003 VAF = 1.000E+002 VAR = 2.800E+002
+ EG = 1.110E+000 XTI = 1.068E+000 XTB = 0.000E+000
+ RC = -1E+000 RB = 2.500E+001 RE = 40
+ CJE = 2.500E-012 MJE = 1.740E-001 VJE = 1.250E-001
+ CJC = 7.24E-012 MJC = 2.573E-001 VJC = 1.100E-001
.ENDS LINK1424
